.model 2N5457 NJF(VTO=-1.8 BETA=1.0e-3 LAMBDA=1e-3 RD=1 RS=1 CGS=4.5e-12 CGD=1.5e-12 PB=0.5 IS=1e-14 FC=0.5)
