.model 2N5460 PJF(VTO=1.5 BETA=7.5e-4 LAMBDA=1e-3 RD=1 RS=1 CGS=4.5e-12 CGD=1.5e-12 PB=0.5 IS=1e-14 FC=0.5)
