.model 1N4007 D(IS=7.02e-9 N=1.984 BV=1000 IBV=5e-8 RS=0.0333 CJO=2.5e-11 VJ=0.7 M=0.333 FC=0.5 TT=5.76e-6 EG=1.11 XTI=3)
