.subckt NMOSSW GATE DRAIN GND RG=100
RG GATE M1_G {RG}
M1 DRAIN M1_G GND GND 2N7000
.ends NMOSSW
