.subckt NPNSW BASE COLLECTOR GND RB=10k
RB BASE Q1_B {RB}
Q1 COLLECTOR Q1_B GND 2N2222
.ends NPNSW
