.model 1N4148 D(IS=4.352e-9 N=1.906 BV=110 IBV=0.0001 RS=0.6458 CJO=7.048e-13 VJ=0.869 M=0.03 FC=0.5 TT=3.48e-9 EG=1.11 XTI=3)
