.model 2N2222 NPN(IS=1.8108e-14 BF=200 NF=1 VAF=131.5 IKF=0.7297 ISE=1.1616e-13 NE=1.5 BR=6.092 NR=1 VAR=100 IKR=0.1 RE=0.4 RC=0.3 RB=10 CJE=2.5e-11 VJE=0.75 MJE=0.3 TF=4.11e-10 XTF=4 VTF=4 ITF=0.6 CJC=1.2e-11 VJC=0.75 MJC=0.35 XCJC=0.5 TR=1.4e-8 XTI=3 EG=1.11 FC=0.5)
