.model 2N3906 PNP(IS=1.41e-15 BF=180 NF=1 VAF=100 IKF=0.06 ISE=6.4e-14 NE=1.72 BR=4 NR=1 VAR=7.5 IKR=0.06 ISC=0 NC=2 RB=10 IRB=0 RBM=0 RE=0.5 RC=0.25 XTB=1.5 CJE=1.5e-11 VJE=0.75 MJE=0.35 TF=5.4e-10 XTF=4 VTF=4 ITF=0.06 CJC=4.5e-12 VJC=0.5 MJC=0.35 XCJC=0.5 TR=2.35e-8 XTI=3 EG=1.11 FC=0.5)
