.subckt HPFILTER IN OUT GND RVAL=1k CVAL=10n
C1 IN MID {CVAL}
R1 MID GND {RVAL}
EOUT OUT GND MID GND 1
.ends HPFILTER
