.subckt LPFILTER IN OUT GND RVAL=1k CVAL=10n
R1 IN MID {RVAL}
C1 MID GND {CVAL}
EOUT OUT GND MID GND 1
.ends LPFILTER
