.subckt DEBOUNCE IN OUT VCC GND RVAL=10k CVAL=100n
R1 VCC MID {RVAL}
C1 MID GND {CVAL}
R2 MID IN 1k
EOUT OUT GND MID GND 1
.ends DEBOUNCE
