.subckt VDIVIDER IN OUT GND R1=10k R2=10k
R1 IN OUT {R1}
R2 OUT GND {R2}
.ends VDIVIDER
