.model 2N7000 NMOS(VTO=2.1 KP=7.4e-2 GAMMA=2.5 PHI=0.75 LAMBDA=0.001 RD=1.5 RS=1.5 IS=1.4e-14 N=1 TOX=2e-8 NSUB=1.7e17 CGSO=3.5e-10 CGDO=1e-12 CJ=1e-4 CJSW=1e-9 FC=0.5)
