.model BS250 PMOS(VTO=-3.2 KP=4.0e-2 GAMMA=1.5 PHI=0.75 LAMBDA=0.01 RD=1.8 RS=1.8 IS=1.4e-14 N=1 TOX=2e-8 NSUB=1.5e17 CGSO=2.5e-10 CGDO=1e-12 CJ=1e-4 CJSW=1e-9 FC=0.5)
