.subckt FULLWAVE AC1 AC2 DC GND CVAL=100u
D1 AC1 DC 1N4007
D2 AC2 DC 1N4007
D3 GND AC1 1N4007
D4 GND AC2 1N4007
C1 DC GND {CVAL}
.ends FULLWAVE
