.subckt HALFWAVE AC DC GND CVAL=100u
D1 AC DC 1N4007
C1 DC GND {CVAL}
.ends HALFWAVE
